03_OpenDSS_Circuits/Flay_Circuit_Opendss/LinesByPhase.DSS
New Line.259529048 Phases= 1  Bus1=259529045.1 Bus2=259529050.1 Length=73.080000 units=m Spacing=VERTICAL-1-PH-104-1PH wires=['2-ACSR-B-6X1' '2-ACSR-B-6X1' ]
New Line.258425095 Phases= 3  Bus1=258425092.1.2.3 Bus2=258425097.1.2.3 Length=52.300000 units=m Spacing=8'-ARM-STANDARD-3PH wires=['1/0-ACSR-B-6X1' '1/0-ACSR-B-6X1' '1/0-ACSR-B-6X1' '1/0-ACSR-B-6X1' ]
New Line.384399846 Phases= 3  Bus1=258406465.1.2.3 Bus2=384399848.1.2.3 Length=1.520000 units=m Spacing=8'-ARM-NON-CENTER-POST-3PH wires=['1/0-ACSR-B-6X1' '1/0-ACSR-B-6X1' '1/0-ACSR-B-6X1' '2-ACSR-B-6X1' ]
New Line.258425013 Phases= 1  Bus1=258425010.3 Bus2=258425015.3 Length=55.590000 units=m Spacing=VERTICAL-1-PH-60-1PH wires=['2-ACSR-B-6X1' '2-ACSR-B-6X1' ]
New Line.258425090 Phases= 3  Bus1=258425080.1.2.3 Bus2=258425092.1.2.3 Length=74.160000 units=m Spacing=8'-ARM-STANDARD-3PH wires=['1/0-ACSR-B-6X1' '1/0-ACSR-B-6X1' '1/0-ACSR-B-6X1' '1/0-ACSR-B-6X1' ]
New Line.258406116 Phases= 1  Bus1=258406113.1 Bus2=258406118.1 Length=79.560000 units=m Spacing=VERTICAL-1-PH-60-1PH wires=['2-ACSR-B-6X1' '1/0-ACSR-B-6X1' ]
New Line.258406196 Phases= 1  Bus1=258406193.3 Bus2=258406198.3 Length=114.300000 units=m Spacing=VERTICAL-1-PH-60-1PH wires=['2-ACSR-B-6X1' '2-ACSR-B-6X1' ]
New Line.258425018 Phases= 1  Bus1=258425015.3 Bus2=258425020.3 Length=42.200000 units=m Spacing=VERTICAL-1-PH-60-1PH wires=['2-ACSR-B-6X1' '2-ACSR-B-6X1' ]
New Line.258406191 Phases= 1  Bus1=258406188.3 Bus2=258406193.3 Length=16.610000 units=m Spacing=VERTICAL-1-PH-60-1PH wires=['2-ACSR-B-6X1' '2-ACSR-B-6X1' ]
New Line.258406111 Phases= 1  Bus1=258406108.1 Bus2=258406113.1 Length=68.500000 units=m Spacing=VERTICAL-1-PH-60-1PH wires=['2-ACSR-B-6X1' '2-ACSR-B-6X1' ]
New Line.620861396 Phases= 1  Bus1=258425075.1 Bus2=620861398.1 Length=1.520000 units=m Spacing=VERTICAL-1-PH-60-1PH wires=['2-ACSR-B-6X1' '2-ACSR-B-6X1' ]
New Line.263391398 Phases= 1  Bus1=258406033.1 Bus2=263391400.1 Length=1.530000 units=m Spacing=VERTICAL-1-PH-60-1PH wires=['2-ACSR-B-6X1' '2-ACSR-B-6X1' ]
New Line.258425195 Phases= 3  Bus1=258425192.1.2.3 Bus2=258425197.1.2.3 Length=63.770000 units=m Spacing=8'-ARM-NON-CENTER-POST-3PH wires=['1/0-ACSR-B-6X1' '1/0-ACSR-B-6X1' '1/0-ACSR-B-6X1' '1/0-ACSR-B-6X1' ]
New Line.258425115 Phases= 1  Bus1=258425112.2 Bus2=258425117.2 Length=98.590000 units=m Spacing=VERTICAL-1-PH-60-1PH wires=['2-ACSR-B-6X1' '2-ACSR-B-6X1' ]
New Line.258425110 Phases= 1  Bus1=258425102.2 Bus2=258425112.2 Length=113.700000 units=m Spacing=VERTICAL-1-PH-60-1PH wires=['2-ACSR-B-6X1' '2-ACSR-B-6X1' ]
New Line.263395271 Phases= 1  Bus1=258425393.2 Bus2=263395273.2 Length=1.530000 units=m Spacing=VERTICAL-1-PH-60-1PH wires=['2-ACSR-B-6X1' '2-ACSR-B-6X1' ]
New Line.263395276 Phases= 1  Bus1=263395273.2 Bus2=258425427.2 Length=110.100000 units=m Spacing=VERTICAL-1-PH-60-1PH wires=['2-ACSR-B-6X1' '2-ACSR-B-6X1' ]
New Line.263391394 Phases= 3  Bus1=263391391.1.2.3 Bus2=258406018.1.2.3 Length=89.130000 units=m Spacing=8'-ARM-STANDARD-3PH wires=['1/0-ACSR-B-6X1' '1/0-ACSR-B-6X1' '1/0-ACSR-B-6X1' '1/0-ACSR-B-6X1' ]
New Line.263395438 Phases= 1  Bus1=263395435.3 Bus2=258425902.3 Length=37.830000 units=m Spacing=VERTICAL-1-PH-60-1PH wires=['2-ACSR-B-6X1' '2-ACSR-B-6X1' ]
New Line.263395379 Phases= 1  Bus1=258425640.1 Bus2=263395381.1 Length=1.520000 units=m Spacing=VERTICAL-1-PH-60-1PH wires=['2-ACSR-B-6X1' '2-ACSR-B-6X1' ]
New Line.290683469 Phases= 3  Bus1=258405593.1.2.3 Bus2=290683468.1.2.3 Length=73.780000 units=m Spacing=HORIZ-LINE-POST-3PH wires=['336-ACSR-B-18X1' '336-ACSR-B-18X1' '336-ACSR-B-18X1' '1/0-ACSR-B-6X1' ]
New Line.263395433 Phases= 1  Bus1=258425892.3 Bus2=263395435.3 Length=1.530000 units=m Spacing=VERTICAL-1-PH-60-1PH wires=['2-ACSR-B-6X1' '2-ACSR-B-6X1' ]
New Line.263395370 Phases= 1  Bus1=258425635.3 Bus2=263395372.3 Length=1.520000 units=m Spacing=VERTICAL-1-PH-60-1PH wires=['2-ACSR-B-6X1' '2-ACSR-B-6X1' ]
New Line.263395258 Phases= 3  Bus1=263395255.1.2.3 Bus2=258425316.1.2.3 Length=48.590000 units=m Spacing=8'-ARM-NON-CENTER-POST-3PH wires=['2-ACSR-B-6X1' '2-ACSR-B-6X1' '2-ACSR-B-6X1' '2-ACSR-B-6X1' ]
New Line.263395375 Phases= 1  Bus1=263395372.3 Bus2=258425645.3 Length=169.200000 units=m Spacing=VERTICAL-1-PH-60-1PH wires=['2-ACSR-B-6X1' '2-ACSR-B-6X1' ]
New Line.263395253 Phases= 3  Bus1=258425306.1.2.3 Bus2=263395255.1.2.3 Length=1.520000 units=m Spacing=8'-ARM-NON-CENTER-POST-3PH wires=['2-ACSR-B-6X1' '2-ACSR-B-6X1' '2-ACSR-B-6X1' '2-ACSR-B-6X1' ]
New Line.263866163 Phases= 1  Bus1=258425443.2 Bus2=263866165.2 Length=1.530000 units=m Spacing=VERTICAL-1-PH-104-1PH wires=['2-ACSR-B-6X1' '2-ACSR-B-6X1' ]
New Line.259126903 Phases= 3  Bus1=258425772.1.2.3 Bus2=258425776.1.2.3 Length=67.250000 units=m Spacing=8'-ARM-STANDARD-3PH wires=['1/0-ACSR-B-6X1' '2-ACSR-B-6X1' '1/0-ACSR-B-6X1' '2-ACSR-B-6X1' ]
New Line.263866168 Phases= 1  Bus1=263866165.2 Bus2=259374992.2 Length=27.410000 units=m Spacing=VERTICAL-1-PH-104-1PH wires=['2-ACSR-B-6X1' '2-ACSR-B-6X1' ]
New Line.263733249 Phases= 1  Bus1=263733246.3 Bus2=258406223.3 Length=145.700000 units=m Spacing=VERTICAL-1-PH-60-1PH wires=['2-ACSR-B-6X1' '2-ACSR-B-6X1' ]
New Line.258424972 Phases= 3  Bus1=258424969.1.2.3 Bus2=258424974.1.2.3 Length=27.910000 units=m Spacing=8'-ARM-NON-CENTER-POST-3PH wires=['2-ACSR-B-6X1' '2-ACSR-B-6X1' '2-ACSR-B-6X1' '2-ACSR-B-6X1' ]
New Line.258425875 Phases= 1  Bus1=258425872.1 Bus2=258425877.1 Length=144.700000 units=m Spacing=VERTICAL-1-PH-60-1PH wires=['2-ACSR-B-6X1' '2-ACSR-B-6X1' ]
New Line.259196721 Phases= 1  Bus1=258443861.3 Bus2=258443865.3 Length=178.300000 units=m Spacing=VERTICAL-1-PH-60-1PH wires=['1/0-ACSR-B-6X1' '1/0-ACSR-B-6X1' ]
New Line.263395352 Phases= 1  Bus1=258405784.3 Bus2=263395354.3 Length=1.520000 units=m Spacing=VERTICAL-1-PH-60-1PH wires=['2-ACSR-B-6X1' '2-ACSR-B-6X1' ]
New Line.263755760 Phases= 3  Bus1=263755757.1.2.3 Bus2=258425294.1.2.3 Length=168.600000 units=m Spacing=8'-ARM-NON-CENTER-POST-3PH wires=['1/0-ACSR-B-6X1' '1/0-ACSR-B-6X1' '1/0-ACSR-B-6X1' '2-ACSR-B-6X1' ]
New Line.263733240 Phases= 1  Bus1=263733237.3 Bus2=258405853.3 Length=52.080000 units=m Spacing=VERTICAL-1-PH-60-1PH wires=['2-ACSR-B-6X1' '2-ACSR-B-6X1' ]
New Line.258425870 Phases= 1  Bus1=258425871.1 Bus2=258425872.1 Length=58.980000 units=m Spacing=VERTICAL-1-PH-60-1PH wires=['2-ACSR-B-6X1' '2-ACSR-B-6X1' ]
New Line.263395411 Phases= 1  Bus1=263395408.1 Bus2=258425832.1 Length=55.150000 units=m Spacing=VERTICAL-1-PH-60-1PH wires=['2-ACSR-B-6X1' '2-ACSR-B-6X1' ]
New Line.263395357 Phases= 1  Bus1=263395354.3 Bus2=258425588.3 Length=93.150000 units=m Spacing=VERTICAL-1-PH-60-1PH wires=['2-ACSR-B-6X1' '2-ACSR-B-6X1' ]
New Line.263733244 Phases= 1  Bus1=258406178.3 Bus2=263733246.3 Length=1.520000 units=m Spacing=VERTICAL-1-PH-60-1PH wires=['2-ACSR-B-6X1' '2-ACSR-B-6X1' ]
New Line.258424979 Phases= 3  Bus1=258424974.1.2.3 Bus2=258424981.1.2.3 Length=61.290000 units=m Spacing=8'-ARM-NON-CENTER-POST-3PH wires=['2-ACSR-B-6X1' '2-ACSR-B-6X1' '2-ACSR-B-6X1' '2-ACSR-B-6X1' ]
New Line.263395415 Phases= 1  Bus1=258425852.1 Bus2=263395417.1 Length=1.530000 units=m Spacing=VERTICAL-1-PH-60-1PH wires=['2-ACSR-B-6X1' '2-ACSR-B-6X1' ]
New Line.259316802 Phases= 1  Bus1=426195270.3 Bus2=259316804.3 Length=50.940000 units=m Spacing=VERTICAL-1-PH-104-1PH wires=['2-ACSR-B-6X1' '2-ACSR-B-6X1' ]
New Line.263733348 Phases= 1  Bus1=263733345.3 Bus2=258443781.3 Length=76.750000 units=m Spacing=VERTICAL-1-PH-104-1PH wires=['2-ACSR-B-6X1' '2-ACSR-B-6X1' ]
New Line.263395231 Phases= 3  Bus1=263395228.1.2.3 Bus2=258425192.1.2.3 Length=108.600000 units=m Spacing=8'-ARM-NON-CENTER-POST-3PH wires=['1/0-ACSR-B-6X1' '1/0-ACSR-B-6X1' '1/0-ACSR-B-6X1' '1/0-ACSR-B-6X1' ]
New Line.263998654 Phases= 1  Bus1=263998651.3 Bus2=259552831.3 Length=103.400000 units=m Spacing=VERTICAL-1-PH-104-1PH wires=['2-ACSR-B-6X1' '2-ACSR-B-6X1' ]
New Line.263395235 Phases= 1  Bus1=258425254.3 Bus2=263395237.3 Length=1.520000 units=m Spacing=VERTICAL-1-PH-60-1PH wires=['2-ACSR-B-6X1' '2-ACSR-B-6X1' ]
New Line.258425975 Phases= 3  Bus1=258425972.1.2.3 Bus2=258425977.1.2.3 Length=127.900000 units=m Spacing=8'-ARM-NON-CENTER-POST-3PH wires=['2-ACSR-B-6X1' '2-ACSR-B-6X1' '2-ACSR-B-6X1' '2-ACSR-B-6X1' ]
New Line.263733343 Phases= 1  Bus1=258443774.3 Bus2=263733345.3 Length=1.520000 units=m Spacing=VERTICAL-1-PH-104-1PH wires=['2-ACSR-B-6X1' '2-ACSR-B-6X1' ]
New Line.258424957 Phases= 3  Bus1=258424954.1.2.3 Bus2=258424959.1.2.3 Length=38.500000 units=m Spacing=8'-ARM-NON-CENTER-POST-3PH wires=['2-ACSR-B-6X1' '2-ACSR-B-6X1' '2-ACSR-B-6X1' '2-ACSR-B-6X1' ]
New Line.258424952 Phases= 3  Bus1=258424939.1.2.3 Bus2=258424954.1.2.3 Length=19.510000 units=m Spacing=8'-ARM-NON-CENTER-POST-3PH wires=['2-ACSR-B-6X1' '2-ACSR-B-6X1' '2-ACSR-B-6X1' '2-ACSR-B-6X1' ]
New Line.263395339 Phases= 1  Bus1=263395336.3 Bus2=258425558.3 Length=74.410000 units=m Spacing=VERTICAL-1-PH-60-1PH wires=['2-ACSR-B-6X1' '2-ACSR-B-6X1' ]
New Line.258425855 Phases= 3  Bus1=258425852.1.2.3 Bus2=258425857.1.2.3 Length=29.350000 units=m Spacing=8'-ARM-NON-CENTER-POST-3PH wires=['2-ACSR-B-6X1' '2-ACSR-B-6X1' '2-ACSR-B-6X1' '2-ACSR-B-6X1' ]
New Line.258425850 Phases= 3  Bus1=258425827.1.2.3 Bus2=258425852.1.2.3 Length=26.280000 units=m Spacing=8'-ARM-NON-CENTER-POST-3PH wires=['2-ACSR-B-6X1' '2-ACSR-B-6X1' '2-ACSR-B-6X1' '2-ACSR-B-6X1' ]
New Line.263733226 Phases= 1  Bus1=258405801.3 Bus2=263733228.3 Length=1.520000 units=m Spacing=VERTICAL-1-PH-60-1PH wires=['2-ACSR-B-6X1' '2-ACSR-B-6X1' ]
New Line.263395298 Phases= 1  Bus1=258425478.3 Bus2=263395300.3 Length=1.520000 units=m Spacing=VERTICAL-1-PH-60-1PH wires=['4-ACSR-B-6X1' '4-ACSR-B-6X1' ]
New Line.263395334 Phases= 1  Bus1=258406003.3 Bus2=263395336.3 Length=1.520000 units=m Spacing=VERTICAL-1-PH-60-1PH wires=['2-ACSR-B-6X1' '2-ACSR-B-6X1' ]
New Line.259196788 Phases= 1  Bus1=258425473.3 Bus2=258425477.3 Length=48.370000 units=m Spacing=VERTICAL-1-PH-60-1PH wires=['4-ACSR-B-6X1' '4-ACSR-B-6X1' ]
New Line.263395294 Phases= 1  Bus1=263395291.3 Bus2=258425473.3 Length=100.300000 units=m Spacing=VERTICAL-1-PH-60-1PH wires=['4-ACSR-B-6X1' '4-ACSR-B-6X1' ]
New Line.259471074 Phases= 1  Bus1=259471071.3 Bus2=259471076.3 Length=87.620000 units=m Spacing=VERTICAL-1-PH-104-1PH wires=['2-ACSR-B-6X1' '2-ACSR-B-6X1' ]
New Line.258425955 Phases= 3  Bus1=258425942.1.2.3 Bus2=258425926.1.2.3 Length=142.900000 units=m Spacing=8'-ARM-NON-CENTER-POST-3PH wires=['2-ACSR-B-6X1' '2-ACSR-B-6X1' '2-ACSR-B-6X1' '2-ACSR-B-6X1' ]
New Line.258424937 Phases= 3  Bus1=258424934.1.2.3 Bus2=258424939.1.2.3 Length=69.990000 units=m Spacing=8'-ARM-NON-CENTER-POST-3PH wires=['2-ACSR-B-6X1' '2-ACSR-B-6X1' '2-ACSR-B-6X1' '2-ACSR-B-6X1' ]
New Line.615922970 Phases= 1  Bus1=615922930.3 Bus2=615922967.3 Length=21.010000 units=m Spacing=VERTICAL-1-PH-60-1PH wires=['2-ACSR-B-6X1' '2-ACSR-B-6X1' ]
New Line.263733289 Phases= 1  Bus1=258424934.2 Bus2=263733291.2 Length=1.520000 units=m Spacing=VERTICAL-1-PH-60-1PH wires=['2-ACSR-B-6X1' '2-ACSR-B-6X1' ]
New Line.263733321 Phases= 1  Bus1=263733318.2 Bus2=258444066.2 Length=64.570000 units=m Spacing=VERTICAL-1-PH-60-1PH wires=['2-ACSR-B-6X1' '2-ACSR-B-6X1' ]
New Line.615922971 Phases= 1  Bus1=615922967.3 Bus2=615922924.3 Length=302.600000 units=m Spacing=VERTICAL-1-PH-60-1PH wires=['2-ACSR-B-6X1' '2-ACSR-B-6X1' ]
New Line.258425950 Phases= 2  Bus1=258425946.1.3 Bus2=258425952.1.3 Length=117.700000 units=m Spacing=8'-ARM-STANDARD-2PH wires=['2-ACSR-B-6X1' '2-ACSR-B-6X1' '2-ACSR-B-6X1' ]
New Line.258424932 Phases= 3  Bus1=258424929.1.2.3 Bus2=258424934.1.2.3 Length=64.960000 units=m Spacing=8'-ARM-NON-CENTER-POST-3PH wires=['2-ACSR-B-6X1' '2-ACSR-B-6X1' '2-ACSR-B-6X1' '2-ACSR-B-6X1' ]
New Line.263399272 Phases= 1  Bus1=258443639.2 Bus2=263399274.2 Length=1.520000 units=m Spacing=VERTICAL-1-PH-60-1PH wires=['2-ACSR-B-6X1' '2-ACSR-B-6X1' ]
New Line.263733325 Phases= 1  Bus1=258425730.1 Bus2=263733327.1 Length=1.530000 units=m Spacing=VERTICAL-1-PH-60-1PH wires=['1/0-ACSR-B-6X1' '1/0-ACSR-B-6X1' ]
New Line.258425835 Phases= 1  Bus1=258425832.1 Bus2=258425837.1 Length=144.600000 units=m Spacing=VERTICAL-1-PH-60-1PH wires=['2-ACSR-B-6X1' '2-ACSR-B-6X1' ]
New Line.263395312 Phases= 1  Bus1=263395309.3 Bus2=258425518.3 Length=110.100000 units=m Spacing=VERTICAL-1-PH-60-1PH wires=['2-ACSR-B-6X1' '2-ACSR-B-6X1' ]
New Line.263395393 Phases= 3  Bus1=263395390.1.2.3 Bus2=258425760.1.2.3 Length=54.500000 units=m Spacing=8'-ARM-NON-CENTER-POST-3PH wires=['1/0-ACSR-B-6X1' '1/0-ACSR-B-6X1' '1/0-ACSR-B-6X1' '1/0-ACSR-B-6X1' ]
New Line.615922979 Phases= 1  Bus1=258406580.3 Bus2=615922930.3 Length=1.520000 units=m Spacing=VERTICAL-1-PH-60-1PH wires=['2-ACSR-B-6X1' '2-ACSR-B-6X1' ]
New Line.263399277 Phases= 1  Bus1=263399274.2 Bus2=258443654.2 Length=20.090000 units=m Spacing=VERTICAL-1-PH-60-1PH wires=['2-ACSR-B-6X1' '2-ACSR-B-6X1' ]
New Line.263733280 Phases= 1  Bus1=258424934.1 Bus2=263733282.1 Length=1.530000 units=m Spacing=VERTICAL-1-PH-60-1PH wires=['2-ACSR-B-6X1' '2-ACSR-B-6X1' ]
New Line.263395316 Phases= 1  Bus1=258425503.3 Bus2=263395318.3 Length=1.530000 units=m Spacing=VERTICAL-1-PH-60-1PH wires=['4-ACSR-B-6X1' '4-ACSR-B-6X1' ]
New Line.263733285 Phases= 1  Bus1=263733282.1 Bus2=258424949.1 Length=111.300000 units=m Spacing=VERTICAL-1-PH-60-1PH wires=['2-ACSR-B-6X1' '2-ACSR-B-6X1' ]
New Line.258405876 Phases= 3  Bus1=258405873.1.2.3 Bus2=258405878.1.2.3 Length=60.520000 units=m Spacing=8'-ARM-STANDARD-3PH wires=['1/0-ACSR-B-6X1' '1/0-ACSR-B-6X1' '1/0-ACSR-B-6X1' '1/0-ACSR-B-6X1' ]
New Line.620695966 Phases= 1  Bus1=258426034.1 Bus2=620695968.1 Length=1.510000 units=m Spacing=VERTICAL-1-PH-104-1PH wires=['2-ACSR-B-6X1' '2-ACSR-B-6X1' ]
New Line.258443667 Phases= 1  Bus1=258443664.2 Bus2=258443669.2 Length=47.530000 units=m Spacing=VERTICAL-1-PH-60-1PH wires=['2-ACSR-B-6X1' '2-ACSR-B-6X1' ]
New Line.259596202 Phases= 3  Bus1=259596203.1.2.3 Bus2=259596204.1.2.3 Length=81.440000 units=m Spacing=8'-ARM-STANDARD-3PH wires=['2-ACSR-B-6X1' '2-ACSR-B-6X1' '2-ACSR-B-6X1' '2-ACSR-B-6X1' ]
New Line.258443662 Phases= 1  Bus1=258443654.2 Bus2=258443664.2 Length=105.900000 units=m Spacing=VERTICAL-1-PH-60-1PH wires=['2-ACSR-B-6X1' '2-ACSR-B-6X1' ]
New Line.258405871 Phases= 3  Bus1=258405868.1.2.3 Bus2=258405873.1.2.3 Length=62.150000 units=m Spacing=8'-ARM-STANDARD-3PH wires=['1/0-ACSR-B-6X1' '1/0-ACSR-B-6X1' '1/0-ACSR-B-6X1' '1/0-ACSR-B-6X1' ]
New Line.258425935 Phases= 3  Bus1=258425932.1.2.3 Bus2=258425937.1.2.3 Length=75.540000 units=m Spacing=8'-ARM-NON-CENTER-POST-3PH wires=['2-ACSR-B-6X1' '2-ACSR-B-6X1' '2-ACSR-B-6X1' '2-ACSR-B-6X1' ]
New Line.259577432 Phases= 3  Bus1=259577429.1.2.3 Bus2=259577434.1.2.3 Length=66.320000 units=m Spacing=8'-ARM-STANDARD-3PH wires=['1/0-ACSR-B-6X1' '1/0-ACSR-B-6X1' '1/0-ACSR-B-6X1' '1/0-ACSR-B-6X1' ]
New Line.263399371 Phases= 2  Bus1=258444093.2.3 Bus2=263399373.2.3 Length=1.530000 units=m Spacing=8'-ARM-STANDARD-2PH wires=['2-ACSR-B-6X1' '2-ACSR-B-6X1' '2-ACSR-B-6X1' ]
New Line.263399259 Phases= 1  Bus1=263399256.1 Bus2=258443719.1 Length=44.000000 units=m Spacing=VERTICAL-1-PH-60-1PH wires=['2-ACSR-B-6X1' '2-ACSR-B-6X1' ]
New Line.263399376 Phases= 2  Bus1=263399373.2.3 Bus2=258444103.2.3 Length=133.300000 units=m Spacing=8'-ARM-STANDARD-2PH wires=['2-ACSR-B-6X1' '2-ACSR-B-6X1' '2-ACSR-B-6X1' ]
New Line.259259900 Phases= 1  Bus1=258406078.1 Bus2=259259891.1 Length=29.350000 units=m Spacing=VERTICAL-1-PH-60-1PH wires=['2-ACSR-B-6X1' '2-ACSR-B-6X1' ]
New Line.258425930 Phases= 3  Bus1=258425922.1.2.3 Bus2=258425932.1.2.3 Length=50.520000 units=m Spacing=8'-ARM-NON-CENTER-POST-3PH wires=['2-ACSR-B-6X1' '2-ACSR-B-6X1' '2-ACSR-B-6X1' '2-ACSR-B-6X1' ]
New Line.259577437 Phases= 3  Bus1=259577434.1.2.3 Bus2=259577439.1.2.3 Length=85.490000 units=m Spacing=8'-ARM-STANDARD-3PH wires=['1/0-ACSR-B-6X1' '1/0-ACSR-B-6X1' '1/0-ACSR-B-6X1' '1/0-ACSR-B-6X1' ]
New Line.258424991 Phases= 2  Bus1=258424981.2.3 Bus2=258424993.2.3 Length=70.170000 units=m Spacing=8'-ARM-STANDARD-2PH wires=['2-ACSR-B-6X1' '2-ACSR-B-6X1' '2-ACSR-B-6X1' ]
New Line.259332453 Phases= 3  Bus1=258443634.1.2.3 Bus2=258443643.1.2.3 Length=289.000000 units=m Spacing=8'-ARM-NON-CENTER-POST-3PH wires=['2-ACSR-B-6X1' '2-ACSR-B-6X1' '2-ACSR-B-6X1' '2-ACSR-B-6X1' ]
New Line.259550257 Phases= 1  Bus1=258443759.3 Bus2=258443763.3 Length=140.200000 units=m Spacing=VERTICAL-1-PH-60-1PH wires=['2-ACSR-B-6X1' '2-ACSR-B-6X1' ]
New Line.258405976 Phases= 1  Bus1=258405973.3 Bus2=258405978.3 Length=64.110000 units=m Spacing=VERTICAL-1-PH-60-1PH wires=['2-ACSR-B-6X1' '2-ACSR-B-6X1' ]
New Line.259474277 Phases= 1  Bus1=259474274.3 Bus2=259474279.3 Length=79.940000 units=m Spacing=VERTICAL-1-PH-104-1PH wires=['2-ACSR-B-6X1' '2-ACSR-B-6X1' ]
New Line.258425895 Phases= 3  Bus1=258425892.1.2.3 Bus2=258425897.1.2.3 Length=24.870000 units=m Spacing=8'-ARM-NON-CENTER-POST-3PH wires=['2-ACSR-B-6X1' '2-ACSR-B-6X1' '2-ACSR-B-6X1' '2-ACSR-B-6X1' ]
New Line.258425815 Phases= 3  Bus1=258425812.1.2.3 Bus2=258425817.1.2.3 Length=137.900000 units=m Spacing=8'-ARM-NON-CENTER-POST-3PH wires=['2-ACSR-B-6X1' '2-ACSR-B-6X1' '2-ACSR-B-6X1' '2-ACSR-B-6X1' ]
New Line.259474272 Phases= 1  Bus1=259474269.3 Bus2=259474274.3 Length=79.890000 units=m Spacing=VERTICAL-1-PH-104-1PH wires=['2-ACSR-B-6X1' '2-ACSR-B-6X1' ]
New Line.258443762 Phases= 1  Bus1=258443763.3 Bus2=258443764.3 Length=256.800000 units=m Spacing=VERTICAL-1-PH-60-1PH wires=['2-ACSR-B-6X1' '2-ACSR-B-6X1' ]
New Line.263399254 Phases= 1  Bus1=258443569.1 Bus2=263399256.1 Length=1.520000 units=m Spacing=VERTICAL-1-PH-60-1PH wires=['2-ACSR-B-6X1' '2-ACSR-B-6X1' ]
New Line.258425890 Phases= 3  Bus1=258425887.1.2.3 Bus2=258425892.1.2.3 Length=87.760000 units=m Spacing=8'-ARM-NON-CENTER-POST-3PH wires=['2-ACSR-B-6X1' '2-ACSR-B-6X1' '2-ACSR-B-6X1' '2-ACSR-B-6X1' ]
New Line.258405971 Phases= 1  Bus1=258405968.3 Bus2=258405973.3 Length=78.210000 units=m Spacing=VERTICAL-1-PH-60-1PH wires=['2-ACSR-B-6X1' '2-ACSR-B-6X1' ]
New Line.258424998 Phases= 1  Bus1=258424993.3 Bus2=258425000.3 Length=103.600000 units=m Spacing=VERTICAL-1-PH-60-1PH wires=['2-ACSR-B-6X1' '2-ACSR-B-6X1' ]
New Line.258405856 Phases= 3  Bus1=258405848.1.2.3 Bus2=258405858.1.2.3 Length=130.300000 units=m Spacing=8'-ARM-STANDARD-3PH wires=['1/0-ACSR-B-6X1' '1/0-ACSR-B-6X1' '1/0-ACSR-B-6X1' '1/0-ACSR-B-6X1' ]
New Line.258443647 Phases= 3  Bus1=258443644.1.2.3 Bus2=258126280.1.2.3 Length=154.600000 units=m Spacing=8'-ARM-NON-CENTER-POST-3PH wires=['2-ACSR-B-6X1' '2-ACSR-B-6X1' '2-ACSR-B-6X1' '2-ACSR-B-6X1' ]
New Line.258443642 Phases= 3  Bus1=258443643.1.2.3 Bus2=258443644.1.2.3 Length=76.930000 units=m Spacing=8'-ARM-NON-CENTER-POST-3PH wires=['2-ACSR-B-6X1' '2-ACSR-B-6X1' '2-ACSR-B-6X1' '2-ACSR-B-6X1' ]
New Line.263395190 Phases= 1  Bus1=258425045.3 Bus2=263395192.3 Length=1.540000 units=m Spacing=VERTICAL-1-PH-60-1PH wires=['2-ACSR-B-6X1' '2-ACSR-B-6X1' ]
New Line.259281206 Phases= 1  Bus1=259149287.3 Bus2=259281208.3 Length=292.500000 units=m Spacing=VERTICAL-1-PH-104-1PH wires=['2-ACSR-B-6X1' '2-ACSR-B-6X1' ]
New Line.258425997 Phases= 3  Bus1=258425994.1.2.3 Bus2=258425999.1.2.3 Length=53.810000 units=m Spacing=8'-ARM-NON-CENTER-POST-3PH wires=['2-ACSR-B-6X1' '2-ACSR-B-6X1' '2-ACSR-B-6X1' '2-ACSR-B-6X1' ]
New Line.263395195 Phases= 1  Bus1=263395192.3 Bus2=258425055.3 Length=159.100000 units=m Spacing=VERTICAL-1-PH-60-1PH wires=['2-ACSR-B-6X1' '2-ACSR-B-6X1' ]
New Line.258443467 Phases= 3  Bus1=258443464.1.2.3 Bus2=258443469.1.2.3 Length=53.060000 units=m Spacing=8'-ARM-NON-CENTER-POST-3PH wires=['2-ACSR-B-6X1' '2-ACSR-B-6X1' '2-ACSR-B-6X1' '2-ACSR-B-6X1' ]
New Line.258425915 Phases= 3  Bus1=258425897.1.2.3 Bus2=258425917.1.2.3 Length=40.720000 units=m Spacing=8'-ARM-NON-CENTER-POST-3PH wires=['2-ACSR-B-6X1' '2-ACSR-B-6X1' '2-ACSR-B-6X1' '2-ACSR-B-6X1' ]
New Line.258425992 Phases= 3  Bus1=258425987.1.2.3 Bus2=258425994.1.2.3 Length=46.790000 units=m Spacing=8'-ARM-NON-CENTER-POST-3PH wires=['2-ACSR-B-6X1' '2-ACSR-B-6X1' '2-ACSR-B-6X1' '2-ACSR-B-6X1' ]
New Line.258443462 Phases= 3  Bus1=258443459.1.2.3 Bus2=258443464.1.2.3 Length=78.900000 units=m Spacing=8'-ARM-NON-CENTER-POST-3PH wires=['2-ACSR-B-6X1' '2-ACSR-B-6X1' '2-ACSR-B-6X1' '2-ACSR-B-6X1' ]
New Line.258425910 Phases= 1  Bus1=258425907.3 Bus2=258425912.3 Length=88.760000 units=m Spacing=VERTICAL-1-PH-60-1PH wires=['2-ACSR-B-6X1' '2-ACSR-B-6X1' ]
New Line.263399232 Phases= 1  Bus1=263399229.1 Bus2=258443539.1 Length=13.790000 units=m Spacing=VERTICAL-1-PH-60-1PH wires=['2-ACSR-B-6X1' '2-ACSR-B-6X1' ]
New Line.258405956 Phases= 1  Bus1=258405953.3 Bus2=258405958.3 Length=84.000000 units=m Spacing=VERTICAL-1-PH-60-1PH wires=['2-ACSR-B-6X1' '2-ACSR-B-6X1' ]
New Line.259474257 Phases= 3  Bus1=258406520.1.2.3 Bus2=258406524.1.2.3 Length=37.100000 units=m Spacing=8'-ARM-NON-CENTER-POST-3PH wires=['2-ACSR-B-6X1' '2-ACSR-B-6X1' '2-ACSR-B-6X1' '2-ACSR-B-6X1' ]
New Line.258443747 Phases= 1  Bus1=258443744.3 Bus2=258443749.3 Length=69.760000 units=m Spacing=VERTICAL-1-PH-60-1PH wires=['2-ACSR-B-6X1' '2-ACSR-B-6X1' ]
New Line.491242324 Phases= 1  Bus1=491242316.2 Bus2=491242313.2 Length=60.260000 units=m Spacing=VERTICAL-1-PH-104-1PH wires=['2-ACSR-B-6X1' '2-ACSR-B-6X1' ]
New Line.491242325 Phases= 1  Bus1=491242313.2 Bus2=491242302.2 Length=101.200000 units=m Spacing=VERTICAL-1-PH-104-1PH wires=['2-ACSR-B-6X1' '2-ACSR-B-6X1' ]
New Line.491242322 Phases= 1  Bus1=491242318.2 Bus2=491242317.2 Length=85.910000 units=m Spacing=VERTICAL-1-PH-104-1PH wires=['2-ACSR-B-6X1' '2-ACSR-B-6X1' ]
New Line.258443742 Phases= 1  Bus1=258443739.3 Bus2=258443744.3 Length=66.240000 units=m Spacing=VERTICAL-1-PH-60-1PH wires=['2-ACSR-B-6X1' '2-ACSR-B-6X1' ]
New Line.491242323 Phases= 1  Bus1=491242317.2 Bus2=491242316.2 Length=76.190000 units=m Spacing=VERTICAL-1-PH-104-1PH wires=['2-ACSR-B-6X1' '2-ACSR-B-6X1' ]
New Line.259240616 Phases= 3  Bus1=258444159.1.2.3 Bus2=258444163.1.2.3 Length=204.200000 units=m Spacing=8'-ARM-NON-CENTER-POST-3PH wires=['2-ACSR-B-6X1' '2-ACSR-B-6X1' '2-ACSR-B-6X1' '2-ACSR-B-6X1' ]
New Line.491242321 Phases= 1  Bus1=491242319.2 Bus2=491242318.2 Length=109.900000 units=m Spacing=VERTICAL-1-PH-104-1PH wires=['2-ACSR-B-6X1' '2-ACSR-B-6X1' ]
New Line.258405951 Phases= 1  Bus1=258405948.3 Bus2=258405953.3 Length=79.970000 units=m Spacing=VERTICAL-1-PH-60-1PH wires=['2-ACSR-B-6X1' '2-ACSR-B-6X1' ]
New Line.258405836 Phases= 3  Bus1=258405828.1.2.3 Bus2=258405838.1.2.3 Length=52.360000 units=m Spacing=8'-ARM-STANDARD-3PH wires=['1/0-ACSR-B-6X1' '1/0-ACSR-B-6X1' '1/0-ACSR-B-6X1' '1/0-ACSR-B-6X1' ]
New Line.258443627 Phases= 1  Bus1=258443584.1 Bus2=258443629.1 Length=132.400000 units=m Spacing=VERTICAL-1-PH-60-1PH wires=['2-ACSR-B-6X1' '2-ACSR-B-6X1' ]
New Line.258443562 Phases= 3  Bus1=258443559.1.2.3 Bus2=258443564.1.2.3 Length=157.200000 units=m Spacing=8'-ARM-NON-CENTER-POST-3PH wires=['2-ACSR-B-6X1' '2-ACSR-B-6X1' '2-ACSR-B-6X1' '2-ACSR-B-6X1' ]
New Line.258443622 Phases= 1  Bus1=258443614.3 Bus2=258443624.3 Length=58.820000 units=m Spacing=VERTICAL-1-PH-60-1PH wires=['1/0-ACSR-B-6X1' '1/0-ACSR-B-6X1' ]
New Line.491242401 Phases= 1  Bus1=491242397.2 Bus2=491242319.2 Length=98.400000 units=m Spacing=VERTICAL-1-PH-104-1PH wires=['2-ACSR-B-6X1' '2-ACSR-B-6X1' ]
New Line.258405831 Phases= 1  Bus1=258405828.3 Bus2=258405833.3 Length=35.460000 units=m Spacing=VERTICAL-1-PH-60-1PH wires=['2-ACSR-B-6X1' '2-ACSR-B-6X1' ]
New Line.263954349 Phases= 1  Bus1=258444139.3 Bus2=263954351.3 Length=1.520000 units=m Spacing=VERTICAL-1-PH-104-1PH wires=['2-ACSR-B-6X1' '2-ACSR-B-6X1' ]
New Line.258443447 Phases= 1  Bus1=258443444.1 Bus2=258443449.1 Length=160.100000 units=m Spacing=VERTICAL-1-PH-60-1PH wires=['2-ACSR-B-6X1' '2-ACSR-B-6X1' ]
New Line.263399299 Phases= 1  Bus1=258443811.3 Bus2=263399301.3 Length=1.520000 units=m Spacing=VERTICAL-1-PH-60-1PH wires=['1/0-ACSR-B-6X1' '1/0-ACSR-B-6X1' ]
New Line.258443442 Phases= 3  Bus1=258443439.1.2.3 Bus2=258443444.1.2.3 Length=151.200000 units=m Spacing=8'-ARM-NON-CENTER-POST-3PH wires=['2-ACSR-B-6X1' '2-ACSR-B-6X1' '2-ACSR-B-6X1' '2-ACSR-B-6X1' ]
New Line.263399335 Phases= 1  Bus1=258443871.3 Bus2=263399337.3 Length=1.530000 units=m Spacing=VERTICAL-1-PH-60-1PH wires=['1/0-ACSR-B-6X1' '1/0-ACSR-B-6X1' ]
New Line.491242306 Phases= 3  Bus1=491242301.1.2.3 Bus2=258444139.1.2.3 Length=71.280000 units=m Spacing=8'-ARM-NON-CENTER-POST-3PH wires=['2-ACSR-B-6X1' '2-ACSR-B-6X1' '2-ACSR-B-6X1' '2-ACSR-B-6X1' ]
New Line.258405936 Phases= 3  Bus1=258405933.1.2.3 Bus2=258405938.1.2.3 Length=50.230000 units=m Spacing=8'-ARM-STANDARD-3PH wires=['1/0-ACSR-B-6X1' '1/0-ACSR-B-6X1' '1/0-ACSR-B-6X1' '1/0-ACSR-B-6X1' ]
New Line.258443727 Phases= 1  Bus1=258443724.1 Bus2=258443729.1 Length=41.880000 units=m Spacing=VERTICAL-1-PH-60-1PH wires=['2-ACSR-B-6X1' '2-ACSR-B-6X1' ]
New Line.263399290 Phases= 1  Bus1=258425927.3 Bus2=263399292.3 Length=1.520000 units=m Spacing=VERTICAL-1-PH-60-1PH wires=['2-ACSR-B-6X1' '2-ACSR-B-6X1' ]
New Line.491242305 Phases= 3  Bus1=258444132.1.2.3 Bus2=491242301.1.2.3 Length=47.900000 units=m Spacing=8'-ARM-NON-CENTER-POST-3PH wires=['2-ACSR-B-6X1' '2-ACSR-B-6X1' '2-ACSR-B-6X1' '2-ACSR-B-6X1' ]
New Line.263399214 Phases= 1  Bus1=263399211.2 Bus2=258443504.2 Length=38.060000 units=m Spacing=VERTICAL-1-PH-60-1PH wires=['1/0-ACSR-B-6X1' '1/0-ACSR-B-6X1' ]
New Line.263399295 Phases= 1  Bus1=263399292.3 Bus2=258443739.3 Length=96.210000 units=m Spacing=VERTICAL-1-PH-60-1PH wires=['2-ACSR-B-6X1' '2-ACSR-B-6X1' ]
New Line.258405931 Phases= 3  Bus1=258405928.1.2.3 Bus2=258405933.1.2.3 Length=127.600000 units=m Spacing=8'-ARM-STANDARD-3PH wires=['1/0-ACSR-B-6X1' '1/0-ACSR-B-6X1' '1/0-ACSR-B-6X1' '1/0-ACSR-B-6X1' ]
New Line.258405816 Phases= 1  Bus1=258405806.2 Bus2=258405818.2 Length=22.630000 units=m Spacing=VERTICAL-1-PH-60-1PH wires=['2-ACSR-B-6X1' '1/0-ACSR-B-6X1' ]
New Line.258443687 Phases= 1  Bus1=258443674.2 Bus2=258443689.2 Length=166.400000 units=m Spacing=VERTICAL-1-PH-60-1PH wires=['2-ACSR-B-6X1' '2-ACSR-B-6X1' ]
New Line.258405896 Phases= 3  Bus1=258405893.1.2.3 Bus2=258405898.1.2.3 Length=78.720000 units=m Spacing=8'-ARM-STANDARD-3PH wires=['1/0-ACSR-B-6X1' '1/0-ACSR-B-6X1' '1/0-ACSR-B-6X1' '1/0-ACSR-B-6X1' ]
New Line.258443547 Phases= 3  Bus1=258443544.1.2.3 Bus2=258443549.1.2.3 Length=123.900000 units=m Spacing=8'-ARM-NON-CENTER-POST-3PH wires=['2-ACSR-B-6X1' '2-ACSR-B-6X1' '2-ACSR-B-6X1' '2-ACSR-B-6X1' ]
New Line.258443607 Phases= 1  Bus1=258443604.3 Bus2=258443609.3 Length=62.750000 units=m Spacing=VERTICAL-1-PH-60-1PH wires=['2-ACSR-B-6X1' '2-ACSR-B-6X1' ]
New Line.264487407 Phases= 3  Bus1=258443564.1.2.3 Bus2=264487409.1.2.3 Length=1.520000 units=m Spacing=8'-ARM-NON-CENTER-POST-3PH wires=['2-ACSR-B-6X1' '2-ACSR-B-6X1' '2-ACSR-B-6X1' '2-ACSR-B-6X1' ]
New Line.258443542 Phases= 3  Bus1=258443534.1.2.3 Bus2=258443544.1.2.3 Length=141.700000 units=m Spacing=8'-ARM-NON-CENTER-POST-3PH wires=['2-ACSR-B-6X1' '2-ACSR-B-6X1' '2-ACSR-B-6X1' '2-ACSR-B-6X1' ]
New Line.258443602 Phases= 1  Bus1=258443599.3 Bus2=258443604.3 Length=237.800000 units=m Spacing=VERTICAL-1-PH-60-1PH wires=['2-ACSR-B-6X1' '2-ACSR-B-6X1' ]
New Line.258443682 Phases= 1  Bus1=258443674.2 Bus2=258443684.2 Length=232.600000 units=m Spacing=VERTICAL-1-PH-60-1PH wires=['2-ACSR-B-6X1' '2-ACSR-B-6X1' ]
New Line.258405891 Phases= 3  Bus1=258405888.1.2.3 Bus2=258405893.1.2.3 Length=106.500000 units=m Spacing=8'-ARM-STANDARD-3PH wires=['1/0-ACSR-B-6X1' '1/0-ACSR-B-6X1' '1/0-ACSR-B-6X1' '1/0-ACSR-B-6X1' ]
New Line.259203779 Phases= 1  Bus1=258443866.3 Bus2=258443870.3 Length=22.920000 units=m Spacing=VERTICAL-1-PH-60-1PH wires=['1/0-ACSR-B-6X1' '1/0-ACSR-B-6X1' ]
New Line.258443427 Phases= 3  Bus1=258443424.1.2.3 Bus2=258443429.1.2.3 Length=45.070000 units=m Spacing=HORIZ-LINE-POST-3PH wires=['2-ACSR-B-6X1' '2-ACSR-B-6X1' '2-ACSR-B-6X1' '2-ACSR-B-6X1' ]
New Line.264487226 Phases= 3  Bus1=258425583.1.2.3 Bus2=264487228.1.2.3 Length=1.520000 units=m Spacing=8'-ARM-STANDARD-3PH wires=['1/0-ACSR-B-6X1' '1/0-ACSR-B-6X1' '1/0-ACSR-B-6X1' '1/0-ACSR-B-6X1' ]
New Line.258443365 Phases= 1  Bus1=258443352.3 Bus2=258443367.3 Length=186.200000 units=m Spacing=VERTICAL-1-PH-60-1PH wires=['2-ACSR-B-6X1' '2-ACSR-B-6X1' ]
New Line.258443422 Phases= 3  Bus1=258443419.1.2.3 Bus2=258443424.1.2.3 Length=92.150000 units=m Spacing=HORIZ-LINE-POST-3PH wires=['2-ACSR-B-6X1' '2-ACSR-B-6X1' '2-ACSR-B-6X1' '2-ACSR-B-6X1' ]
New Line.263399317 Phases= 1  Bus1=258443826.3 Bus2=263399319.3 Length=1.520000 units=m Spacing=VERTICAL-1-PH-60-1PH wires=['1/0-ACSR-B-6X1' '1/0-ACSR-B-6X1' ]
New Line.264487222 Phases= 1  Bus1=264487219.2 Bus2=258425328.2 Length=59.600000 units=m Spacing=VERTICAL-1-PH-60-1PH wires=['2-ACSR-B-6X1' '2-ACSR-B-6X1' ]
New Line.258443360 Phases= 1  Bus1=258443352.3 Bus2=258443362.3 Length=47.670000 units=m Spacing=VERTICAL-1-PH-60-1PH wires=['1/0-ACSR-B-6X1' '1/0-ACSR-B-6X1' ]
New Line.259987103 Phases= 1  Bus1=258406677.3 Bus2=259987105.3 Length=25.140000 units=m Spacing=VERTICAL-1-PH-60-1PH wires=['2-ACSR-B-6X1' '2-ACSR-B-6X1' ]
New Line.258405916 Phases= 3  Bus1=258405913.1.2.3 Bus2=258405918.1.2.3 Length=89.720000 units=m Spacing=8'-ARM-STANDARD-3PH wires=['1/0-ACSR-B-6X1' '1/0-ACSR-B-6X1' '1/0-ACSR-B-6X1' '1/0-ACSR-B-6X1' ]
New Line.258405996 Phases= 3  Bus1=258405997.1.2.3 Bus2=258405998.1.2.3 Length=73.260000 units=m Spacing=8'-ARM-STANDARD-3PH wires=['1/0-ACSR-B-6X1' '1/0-ACSR-B-6X1' '1/0-ACSR-B-6X1' '1/0-ACSR-B-6X1' ]
New Line.258443707 Phases= 1  Bus1=258443684.2 Bus2=258443709.2 Length=122.100000 units=m Spacing=VERTICAL-1-PH-60-1PH wires=['2-ACSR-B-6X1' '2-ACSR-B-6X1' ]
New Line.258443784 Phases= 1  Bus1=258443781.3 Bus2=258443786.3 Length=78.910000 units=m Spacing=VERTICAL-1-PH-60-1PH wires=['2-ACSR-B-6X1' '2-ACSR-B-6X1' ]
New Line.258443702 Phases= 1  Bus1=258443694.2 Bus2=258443704.2 Length=284.800000 units=m Spacing=VERTICAL-1-PH-60-1PH wires=['2-ACSR-B-6X1' '2-ACSR-B-6X1' ]
New Line.438022633 Phases= 1  Bus1=258406383.3 Bus2=426195252.3 Length=1.510000 units=m Spacing=VERTICAL-1-PH-60-1PH wires=['2-ACSR-B-6X1' '2-ACSR-B-6X1' ]
New Line.258405991 Phases= 3  Bus1=258405983.1.2.3 Bus2=258405993.1.2.3 Length=98.530000 units=m Spacing=8'-ARM-STANDARD-3PH wires=['1/0-ACSR-B-6X1' '1/0-ACSR-B-6X1' '1/0-ACSR-B-6X1' '1/0-ACSR-B-6X1' ]
New Line.258405911 Phases= 3  Bus1=258405898.1.2.3 Bus2=258405913.1.2.3 Length=72.130000 units=m Spacing=8'-ARM-STANDARD-3PH wires=['1/0-ACSR-B-6X1' '1/0-ACSR-B-6X1' '1/0-ACSR-B-6X1' '1/0-ACSR-B-6X1' ]
New Line.259266157 Phases= 3  Bus1=258425075.1.2.3 Bus2=258425166.1.2.3 Length=109.500000 units=m Spacing=8'-ARM-NON-CENTER-POST-3PH wires=['2-ACSR-B-6X1' '2-ACSR-B-6X1' '2-ACSR-B-6X1' '2-ACSR-B-6X1' ]
New Line.263834526 Phases= 1  Bus1=263834523.3 Bus2=259335543.3 Length=104.500000 units=m Spacing=VERTICAL-1-PH-104-1PH wires=['2-ACSR-B-6X1' '2-ACSR-B-6X1' ]
New Line.259491968 Phases= 3  Bus1=258406028.1.2.3 Bus2=259491970.1.2.3 Length=73.670000 units=m Spacing=8'-ARM-STANDARD-3PH wires=['1/0-ACSR-B-6X1' '1/0-ACSR-B-6X1' '1/0-ACSR-B-6X1' '1/0-ACSR-B-6X1' ]
New Line.258443527 Phases= 3  Bus1=258443524.1.2.3 Bus2=258443529.1.2.3 Length=78.160000 units=m Spacing=8'-ARM-NON-CENTER-POST-3PH wires=['2-ACSR-B-6X1' '2-ACSR-B-6X1' '2-ACSR-B-6X1' '2-ACSR-B-6X1' ]
New Line.259400476 Phases= 1  Bus1=258425402.2 Bus2=259400478.2 Length=159.700000 units=m Spacing=VERTICAL-1-PH-104-1PH wires=['2-ACSR-B-6X1' '2-ACSR-B-6X1' ]
New Line.258443522 Phases= 3  Bus1=258443519.1.2.3 Bus2=258443524.1.2.3 Length=167.100000 units=m Spacing=8'-ARM-NON-CENTER-POST-3PH wires=['2-ACSR-B-6X1' '2-ACSR-B-6X1' '2-ACSR-B-6X1' '2-ACSR-B-6X1' ]
New Line.258443789 Phases= 1  Bus1=258443786.3 Bus2=258443791.3 Length=27.020000 units=m Spacing=VERTICAL-1-PH-60-1PH wires=['2-ACSR-B-6X1' '2-ACSR-B-6X1' ]
New Line.263834521 Phases= 1  Bus1=258405868.3 Bus2=263834523.3 Length=1.520000 units=m Spacing=VERTICAL-1-PH-104-1PH wires=['2-ACSR-B-6X1' '2-ACSR-B-6X1' ]
New Line.258443487 Phases= 3  Bus1=258443479.1.2.3 Bus2=258443489.1.2.3 Length=107.500000 units=m Spacing=8'-ARM-NON-CENTER-POST-3PH wires=['2-ACSR-B-6X1' '2-ACSR-B-6X1' '2-ACSR-B-6X1' '2-ACSR-B-6X1' ]
New Line.258443345 Phases= 1  Bus1=258426156.3 Bus2=258443347.3 Length=172.000000 units=m Spacing=VERTICAL-1-PH-60-1PH wires=['2-ACSR-B-6X1' '2-ACSR-B-6X1' ]
New Line.258443405 Phases= 3  Bus1=258443402.1.2.3 Bus2=258443407.1.2.3 Length=87.020000 units=m Spacing=HORIZ-LINE-POST-3PH wires=['2-ACSR-B-6X1' '2-ACSR-B-6X1' '2-ACSR-B-6X1' '2-ACSR-B-6X1' ]
New Line.258443400 Phases= 3  Bus1=258443397.1.2.3 Bus2=258443402.1.2.3 Length=85.350000 units=m Spacing=HORIZ-LINE-POST-3PH wires=['2-ACSR-B-6X1' '2-ACSR-B-6X1' '2-ACSR-B-6X1' '2-ACSR-B-6X1' ]
New Line.699613273 Phases= 3  Bus1=258405744.1.2.3 Bus2=699613275.1.2.3 Length=300.300000 units=m Spacing=HORIZ-LINE-POST-3PH wires=['336-AAC-B-19' '336-AAC-B-19' '336-AAC-B-19' '1/0-ACSR-B-6X1' ]
New Line.264487208 Phases= 3  Bus1=255192292.1.2.3 Bus2=264487210.1.2.3 Length=1.520000 units=m Spacing=8'-ARM-NON-CENTER-POST-3PH wires=['2-ACSR-B-6X1' '2-ACSR-B-6X1' '2-ACSR-B-6X1' '2-ACSR-B-6X1' ]
New Line.699613179 Phases= 1  Bus1=258405662.2 Bus2=699613181.2 Length=1.540000 units=m Spacing=VERTICAL-1-PH-60-1PH wires=['2-ACSR-B-6X1' '2-ACSR-B-6X1' ]
New Line.258443507 Phases= 1  Bus1=258443504.2 Bus2=258443509.2 Length=126.400000 units=m Spacing=VERTICAL-1-PH-60-1PH wires=['1/0-ACSR-B-6X1' '1/0-ACSR-B-6X1' ]
New Line.264377255 Phases= 3  Bus1=258405791.1.2.3 Bus2=264377257.1.2.3 Length=1.530000 units=m Spacing=8'-ARM-STANDARD-3PH wires=['1/0-ACSR-B-6X1' '1/0-ACSR-B-6X1' '1/0-ACSR-B-6X1' '1/0-ACSR-B-6X1' ]
New Line.258443582 Phases= 3  Bus1=258443579.1.2.3 Bus2=258443584.1.2.3 Length=254.900000 units=m Spacing=8'-ARM-NON-CENTER-POST-3PH wires=['2-ACSR-B-6X1' '2-ACSR-B-6X1' '2-ACSR-B-6X1' '2-ACSR-B-6X1' ]
New Line.264377419 Phases= 3  Bus1=258425603.1.2.3 Bus2=264377421.1.2.3 Length=1.530000 units=m Spacing=8'-ARM-STANDARD-3PH wires=['1/0-ACSR-B-6X1' '1/0-ACSR-B-6X1' '1/0-ACSR-B-6X1' '1/0-ACSR-B-6X1' ]
New Line.259988207 Phases= 3  Bus1=258425700.1.2.3 Bus2=258425704.1.2.3 Length=44.470000 units=m Spacing=8'-ARM-NON-CENTER-POST-3PH wires=['2-ACSR-B-6X1' '1/0-ACSR-B-6X1' '1/0-ACSR-B-6X1' '2-ACSR-B-6X1' ]
New Line.264487008 Phases= 3  Bus1=258406368.1.2.3 Bus2=264487010.1.2.3 Length=1.530000 units=m Spacing=8'-ARM-STANDARD-3PH wires=['1/0-ACSR-B-6X1' '1/0-ACSR-B-6X1' '1/0-ACSR-B-6X1' '1/0-ACSR-B-6X1' ]
New Line.259457130 Phases= 1  Bus1=259259891.1 Bus2=259259896.1 Length=63.840000 units=m Spacing=VERTICAL-1-PH-104-1PH wires=['2-ACSR-B-6X1' '2-ACSR-B-6X1' ]
New Line.699613236 Phases= 1  Bus1=699613233.2 Bus2=699613227.2 Length=23.410000 units=m Spacing=VERTICAL-1-PH-60-1PH wires=['2-ACSR-B-6X1' '2-ACSR-B-6X1' ]
New Line.258443385 Phases= 3  Bus1=258443386.1.2.3 Bus2=258443387.1.2.3 Length=179.900000 units=m Spacing=HORIZ-LINE-POST-3PH wires=['2-ACSR-B-6X1' '2-ACSR-B-6X1' '2-ACSR-B-6X1' '2-ACSR-B-6X1' ]
New Line.264377514 Phases= 3  Bus1=264377511.1.2.3 Bus2=258444083.1.2.3 Length=23.150000 units=m Spacing=8'-ARM-NON-CENTER-POST-3PH wires=['2-ACSR-B-6X1' '2-ACSR-B-6X1' '2-ACSR-B-6X1' '2-ACSR-B-6X1' ]
...
