03_OpenDSS_Circuits/Flay_Circuit_Opendss/FLAY_RET_16271201_VLN.Txt

SYMMETRICAL COMPONENT VOLTAGES BY BUS (for 3-phase buses)

Bus                    Mag:   V1 (kV)    p.u.     V2 (kV)   %V2/V1    V0 (kV)    %V0/V1

flay_ret_16271201         7.222      1.003    0.02875     0.3981   0.01381    0.1913
flay_ret_16271201_reg     7.446      1.034     0.0299     0.4015   0.01449    0.1946
259478708                 6.969      0.968          0          0         0         0
263960229                 6.969      0.968          0          0         0         0
260005788                 7.083     0.9839          0          0         0         0
261061097                 7.083     0.9838          0          0         0         0
258426039                 7.018     0.9747        0.1      1.425    0.1248     1.778
263395453                 7.031     0.9766          0          0         0         0
260663880                 7.031     0.9766          0          0         0         0
260664691                 7.111     0.9877          0          0         0         0
260664696                 7.111     0.9877          0          0         0         0
260662951                 6.923     0.9615          0          0         0         0
260662956                 6.922     0.9615          0          0         0         0
260663855                 7.108     0.9873          0          0         0         0
260663845                 7.108     0.9873          0          0         0         0
263395327                 7.109     0.9875          0          0         0         0
260663835                 7.109     0.9874          0          0         0         0
259577429                  7.12     0.9889    0.05436     0.7636     0.107     1.503
264148864                 7.124     0.9894          0          0         0         0
261434126                 7.122     0.9892          0          0         0         0
260663850                 7.109     0.9874          0          0         0         0
263395210                 7.103     0.9866          0          0         0         0
260663820                 7.103     0.9866          0          0         0         0
258425187                 7.103     0.9866          0          0         0         0
263395219                 7.103     0.9866          0          0         0         0
260663840                 7.109     0.9874          0          0         0         0
258425792                 7.104     0.9867    0.08691      1.224     0.118     1.661
263395399                 7.104     0.9867    0.08691      1.224     0.118     1.661
260662896                 7.119     0.9889          0          0         0         0
260662901                 7.119     0.9888          0          0         0         0
259577439                 7.118     0.9887    0.05459     0.7669    0.1056     1.483
264148846                 7.042     0.9782          0          0         0         0
261433681                 7.122     0.9892          0          0         0         0
261434117                 7.122     0.9892          0          0         0         0
261433676                 7.122     0.9892          0          0         0         0
261434092                 7.042     0.9781          0          0         0         0
263399247                 6.893     0.9574          0          0         0         0
260664721                 6.888     0.9568          0          0         0         0
258425177                 7.105     0.9869          0          0         0         0
263395201                 7.105     0.9869          0          0         0         0
260663810                 7.099     0.9861          0          0         0         0
260663790                 7.099      0.986          0          0         0         0
263399355                  6.91     0.9598          0          0         0         0
260664776                  6.91     0.9598          0          0         0         0
261433687                 7.043     0.9782          0          0         0         0
261433671                 7.042     0.9781          0          0         0         0
261434097                 7.042     0.9781          0          0         0         0
261433666                 7.042     0.9781          0          0         0         0
258443981                  6.91     0.9598          0          0         0         0
263399175                 7.113     0.9879          0          0         0         0
260664681                 7.112     0.9878          0          0         0         0
258443424                 6.975     0.9688     0.1059      1.518    0.1157     1.658
258443539                 6.893     0.9574          0          0         0         0
263399238                 6.893     0.9574          0          0         0         0
617401567                 7.125     0.9896          0          0         0         0
617401556                 7.124     0.9895          0          0         0         0
258443386                 6.994     0.9714     0.1036      1.481     0.124     1.773
263702144                 6.862      0.953          0          0         0         0
258443524                 6.945     0.9646      0.114      1.641    0.1083     1.559
263399220                 6.839       0.95          0          0         0         0
263399328                 6.924     0.9617          0          0         0         0
260664771                 6.924     0.9617          0          0         0         0
260972735                 6.861     0.9529          0          0         0         0
264353610                 7.122     0.9892          0          0         0         0
263399310                 6.926      0.962          0          0         0         0
260664766                 6.926      0.962          0          0         0         0
263399391                 7.193     0.9991          0          0         0         0
260664781                 7.193     0.9991          0          0         0         0
258443464                 6.962      0.967     0.1091      1.568     0.112     1.609
263399193                 6.934      0.963          0          0         0         0
260664716                 6.933      0.963          0          0         0         0
264353601                 7.042     0.9781          0          0         0         0
261433667                 7.042     0.9781          0          0         0         0
263981657                 6.997     0.9719          0          0         0         0
261266937                 6.997     0.9719          0          0         0         0
450041331                  6.88     0.9557          0          0         0         0
450041303                  6.88     0.9557          0          0         0         0
384331459                 6.873     0.9546          0          0         0         0
384331487                 6.873     0.9546          0          0         0         0
258425699                 7.206      1.001    0.06317     0.8767   0.09165     1.272
264146153                 7.245      1.006          0          0         0         0
261430842                 7.245      1.006          0          0         0         0
258406218                 7.041     0.9779          0          0         0         0
263391463                 7.041     0.9779          0          0         0         0
260662916                  7.04     0.9779          0          0         0         0
620861418                 6.996     0.9717    0.05444     0.7782    0.1397     1.997
620861448                 6.972     0.9684          0          0         0         0
258406550                 6.924     0.9617          0          0         0         0
263391562                 6.924     0.9617          0          0         0         0
260662946                 6.923     0.9616          0          0         0         0
263782338                 7.067     0.9816          0          0         0         0
261052096                 7.067     0.9816          0          0         0         0
259418041                 6.881     0.9558          0          0         0         0
263909231                 6.881     0.9558          0          0         0         0
384502983                  6.88     0.9556          0          0         0         0
384503022                  6.88     0.9556          0          0         0         0
260981170                  6.95     0.9654          0          0         0         0
260981164                  6.95     0.9653          0          0         0         0
260663780                 7.105     0.9868          0          0         0         0
260663785                 7.104     0.9868          0          0         0         0
384502996                  6.88     0.9556          0          0         0         0
258425926                 7.046     0.9786    0.09743      1.383    0.1262     1.791
263782329                 7.067     0.9816          0          0         0         0
258406123                 7.178      0.997          0          0         0         0
263391427                 7.178      0.997          0          0         0         0
263391517                 7.191     0.9989          0          0         0         0
260662941                 7.191     0.9988          0          0         0         0
263391346                 7.388      1.026          0          0         0         0
260662881                 7.388      1.026          0          0         0         0
258443763                 6.906     0.9593          0          0         0         0
263997744                 6.906     0.9593          0          0         0         0
261282710                 6.906     0.9592          0          0         0         0
258405714                 7.388      1.026          0          0         0         0
263391481                 7.109     0.9875          0          0         0         0
260664746                  6.89     0.9571          0          0         0         0
260664736                  6.89      0.957          0          0         0         0
260664741                 6.891     0.9572          0          0         0         0
263663375                 6.915     0.9605          0          0         0         0
260881911                 6.915     0.9605          0          0         0         0
258406338                 7.192     0.9989          0          0         0         0
263391508                 7.192     0.9989          0          0         0         0
259142547                 6.915     0.9605          0          0         0         0
260664726                 6.888     0.9567          0          0         0         0
260664731                 6.887     0.9566          0          0         0         0
261061098                 7.083     0.9838          0          0         0         0
264338255                 7.104     0.9868          0          0         0         0
260664686                 7.111     0.9877          0          0         0         0
258425363                 6.978     0.9693          0          0         0         0
263395264                 6.978     0.9693          0          0         0         0
261243331                 6.969     0.9679          0          0         0         0
260663825                 6.978     0.9693          0          0         0         0
258405938                 7.153     0.9935    0.05294     0.7401    0.1045     1.461
263391382                 7.158     0.9942          0          0         0         0
260662886                 7.158     0.9942          0          0         0         0
263395426                 7.106      0.987          0          0         0         0
260663875                 7.106     0.9869          0          0         0         0
260664701                 7.112     0.9878          0          0         0         0
260664706                 7.112     0.9878          0          0         0         0
258425882                 7.106      0.987          0          0         0         0
263395345                 7.266      1.009          0          0         0         0
260663865                 7.266      1.009          0          0         0         0
260663870                 7.103     0.9866    0.08691      1.224    0.1179      1.66
258405818                 7.266      1.009          0          0         0         0
259446919                 6.907     0.9594          0          0         0         0
261213173                 6.907     0.9594          0          0         0         0
260663795                 7.103     0.9865          0          0         0         0
258406233                 7.113     0.9879    0.05387     0.7573    0.1139     1.601
258425468                 6.997     0.9719          0          0         0         0
263395282                 6.997     0.9719          0          0         0         0
260663830                 6.997     0.9719          0          0         0         0
264310933                 7.112     0.9878          0          0         0         0
260662926                 7.114     0.9881          0          0         0         0
260662931                 7.113      0.988          0          0         0         0
260662921                 7.114     0.9881          0          0         0         0
264148873                 7.043     0.9782          0          0         0         0
260662906                 7.119     0.9888          0          0         0         0
260662911                 7.119     0.9888          0          0         0         0
260663805                   7.1     0.9862          0          0         0         0
264148855                 7.124     0.9895          0          0         0         0
260663800                 7.101     0.9862          0          0         0         0
261434112                 7.122     0.9892          0          0         0         0
260664761                 6.839     0.9499          0          0         0         0
258406032                 7.118     0.9886    0.05476     0.7694    0.1045     1.469
620695940                 7.031     0.9767          0          0         0         0
620695957                 7.031     0.9766          0          0         0         0
258443856                 6.924     0.9617          0          0         0         0
258443724                 6.881     0.9557          0          0         0         0
263399283                 6.881     0.9557          0          0         0         0
260664756                 6.881     0.9557          0          0         0         0
258443831                 6.926      0.962          0          0         0         0
258444254                 7.193     0.9991          0          0         0         0
258443429                 6.974     0.9687     0.1061      1.521    0.1153     1.654
263399184                 7.112     0.9879          0          0         0         0
264357162                 7.113      0.988          0          0         0         0
450041290                  6.88     0.9557          0          0         0         0
384331483                 6.873     0.9546          0          0         0         0
264245362                 6.887     0.9566          0          0         0         0
258425463                 6.997     0.9719          0          0         0         0
260972736                  6.86     0.9529          0          0         0         0
264276847                 7.109     0.9874          0          0         0         0
258406228                 7.116     0.9884     0.0538     0.7561    0.1127     1.584
263391472                 7.114     0.9881          0          0         0         0
260981165                 6.949     0.9652          0          0         0         0
620861437                 6.972     0.9684          0          0         0         0
263391571                 6.922     0.9615          0          0         0         0
260662961                 6.922     0.9615          0          0         0         0
261184167                 6.881     0.9558          0          0         0         0
261433677                 7.122     0.9892          0          0         0         0
258406013                 7.121     0.9891    0.05382     0.7557    0.1113     1.563
263391454                  7.12      0.989          0          0         0         0
259217100                 6.951     0.9655          0          0         0         0
263709233                 6.951     0.9655          0          0         0         0
261052101                 7.067     0.9816          0          0         0         0
260662891                 7.178      0.997          0          0         0         0
259374992                 6.974     0.9687          0          0         0         0
261140529                 6.974     0.9686          0          0         0         0
261052090                 7.065     0.9813          0          0         0         0
261052091                 7.065     0.9813          0          0         0         0
261052106                 7.066     0.9814          0          0         0         0
260662936                 7.192     0.9989          0          0         0         0
258406348                 7.191     0.9989          0          0         0         0
259529045                 7.175     0.9966          0          0         0         0
...
