03_OpenDSS_Circuits/Flay_Circuit_Opendss/FLAY_RET_16271201_VLN_Node.Txt

LINE-GROUND and LINE-LINE VOLTAGES BY BUS & NODE

Bus                   Node    VLN (kV)   Angle      pu     Base kV    Node-Node   VLL (kV)  Angle      pu

FLAY_RET_16271201 ... 1       7.2681 /_   -2.4    1.0095    12.470        1-2     12.613 /_   27.6    1.0114
   -                  2       7.2945 /_ -122.4    1.0132    12.470        2-3     12.627 /_  -92.7    1.0126
   -                  3       7.2539 /_  117.1    1.0075    12.470        3-1     12.548 /_  147.4    1.0062
FLAY_RET_16271201_REG 1       7.4473 /_   -2.5    1.0344    12.470        1-2     12.884 /_   27.5    1.0332
   -                  2       7.4289 /_ -122.5    1.0319    12.470        2-3       12.9 /_  -92.7    1.0345
   -                  3        7.432 /_  117.0    1.0323    12.470        3-1     12.855 /_  147.3    1.0309
259478708 ........... 2       6.8565 /_ -125.5   0.95235    12.470
263960229 ........... 2       6.8565 /_ -125.5   0.95235    12.470
260005788 ........... 1       7.2371 /_   -5.4    1.0052    12.470
261061097 ........... 1        7.237 /_   -5.4    1.0052    12.470
258426039 ........... 1       7.1931 /_   -5.6    0.9991    12.470        1-2     12.414 /_   26.0   0.99552
   -                  2       7.3305 /_ -123.1    1.0182    12.470        2-3     12.525 /_  -95.3    1.0044
   -                  3        6.939 /_  114.2   0.96381    12.470        3-1     12.228 /_  144.9    0.9806
263395453 ........... 1       7.1931 /_   -5.6    0.9991    12.470
260663880 ........... 1       7.1931 /_   -5.6    0.9991    12.470
260664691 ........... 2       7.3252 /_ -123.0    1.0175    12.470
260664696 ........... 2       7.3252 /_ -123.0    1.0175    12.470
260662951 ........... 3       7.0786 /_  113.7    0.9832    12.470
260662956 ........... 3       7.0786 /_  113.7    0.9832    12.470
260663855 ........... 2        7.049 /_ -124.6   0.97908    12.470
260663845 ........... 2        7.049 /_ -124.6   0.97908    12.470
263395327 ........... 2        7.049 /_ -124.6   0.97909    12.470
260663835 ........... 2        7.049 /_ -124.6   0.97909    12.470
259577429 ........... 1       7.3118 /_   -4.2    1.0156    12.470        1-2     12.461 /_   25.0   0.99925
   -                  2       7.0418 /_ -124.6   0.97809    12.470        2-3     12.349 /_  -95.2   0.99031
   -                  3       7.1162 /_  113.9   0.98842    12.470        3-1     12.373 /_  145.4   0.99226
264148864 ........... 2       7.0418 /_ -124.6   0.97808    12.470
261434126 ........... 2       7.0363 /_ -124.6   0.97732    12.470
260663850 ........... 2        7.049 /_ -124.6   0.97909    12.470
263395210 ........... 1       7.2504 /_   -4.1    1.0071    12.470
260663820 ........... 1       7.2504 /_   -4.1    1.0071    12.470
258425187 ........... 1       7.2504 /_   -4.1    1.0071    12.470
263395219 ........... 1       7.2504 /_   -4.1    1.0071    12.470
260663840 ........... 2        7.049 /_ -124.6   0.97909    12.470
258425792 ........... 1       7.2817 /_   -5.1    1.0114    12.470        1-2     12.532 /_   26.0     1.005
   -                  2       7.3324 /_ -123.2    1.0185    12.470        2-3     12.606 /_  -95.0    1.0109
   -                  3       7.0533 /_  114.4   0.97969    12.470        3-1     12.386 /_  145.2   0.99324
263395399 ........... 1       7.2817 /_   -5.1    1.0114    12.470        1-2     12.532 /_   26.0     1.005
   -                  2       7.3324 /_ -123.2    1.0185    12.470        2-3     12.606 /_  -95.0    1.0109
   -                  3       7.0533 /_  114.4   0.97969    12.470        3-1     12.386 /_  145.2   0.99324
260662896 ........... 2       7.0594 /_ -124.6   0.98054    12.470
260662901 ........... 2       7.0594 /_ -124.6   0.98053    12.470
259577439 ........... 1       7.3082 /_   -4.2    1.0151    12.470        1-2     12.455 /_   25.0   0.99878
   -                  2       7.0383 /_ -124.6    0.9776    12.470        2-3     12.344 /_  -95.2   0.98988
   -                  3        7.114 /_  113.9   0.98811    12.470        3-1     12.368 /_  145.3   0.99186
264148846 ........... 3       7.1139 /_  113.9   0.98811    12.470
261433681 ........... 2       7.0356 /_ -124.6   0.97722    12.470
261434117 ........... 2       7.0318 /_ -124.6    0.9767    12.470
261433676 ........... 2       7.0318 /_ -124.6    0.9767    12.470
261434092 ........... 3        7.113 /_  113.9   0.98798    12.470
263399247 ........... 1       7.1768 /_   -5.8   0.99684    12.470
260664721 ........... 1       7.1767 /_   -5.8   0.99682    12.470
258425177 ........... 1       7.2506 /_   -4.1    1.0071    12.470
263395201 ........... 1       7.2506 /_   -4.1    1.0071    12.470
260663810 ........... 1         7.25 /_   -4.1     1.007    12.470
260663790 ........... 1         7.25 /_   -4.1     1.007    12.470
263399355 ........... 3       7.0045 /_  114.2   0.97291    12.470
260664776 ........... 3       7.0045 /_  114.2   0.97291    12.470
261433687 ........... 3       7.1153 /_  113.9   0.98829    12.470
261433671 ........... 3       7.1144 /_  113.9   0.98818    12.470
261434097 ........... 3       7.1124 /_  113.9   0.98789    12.470
261433666 ........... 3       7.1124 /_  113.9   0.98789    12.470
258443981 ........... 3       7.0045 /_  114.2   0.97291    12.470
263399175 ........... 2       7.3253 /_ -122.9    1.0175    12.470
260664681 ........... 2       7.3253 /_ -123.0    1.0175    12.470
258443424 ........... 1       7.1954 /_   -5.7   0.99943    12.470        1-2       12.4 /_   26.0   0.99442
   -                  2       7.3253 /_ -122.9    1.0175    12.470        2-3     12.492 /_  -95.4    1.0018
   -                  3       6.8871 /_  114.0   0.95661    12.470        3-1     12.178 /_  144.9   0.97661
258443539 ........... 1       7.1768 /_   -5.8   0.99684    12.470
263399238 ........... 1       7.1768 /_   -5.8   0.99684    12.470
617401567 ........... 2       7.0386 /_ -124.6   0.97764    12.470
617401556 ........... 2       7.0386 /_ -124.6   0.97764    12.470
258443386 ........... 1       7.2047 /_   -5.6    1.0007    12.470        1-2     12.413 /_   26.0    0.9954
   -                  2       7.3252 /_ -123.0    1.0174    12.470        2-3     12.502 /_  -95.4    1.0026
   -                  3       6.9006 /_  114.1   0.95848    12.470        3-1     12.196 /_  144.9   0.97803
263702144 ........... 3       6.9006 /_  114.1   0.95848    12.470
258443524 ........... 1       7.1778 /_   -5.8   0.99697    12.470        1-2     12.377 /_   26.0   0.99255
   -                  2       7.3275 /_ -122.9    1.0178    12.470        2-3     12.477 /_  -95.5    1.0006
   -                  3       6.8614 /_  114.0   0.95302    12.470        3-1     12.145 /_  144.9   0.97391
263399220 ........... 3       6.8613 /_  114.0   0.95302    12.470
263399328 ........... 3       7.0135 /_  114.3   0.97416    12.470
260664771 ........... 3       7.0135 /_  114.3   0.97416    12.470
260972735 ........... 3       6.9006 /_  114.1   0.95848    12.470
264353610 ........... 2       7.0318 /_ -124.6    0.9767    12.470
263399310 ........... 3       7.0144 /_  114.3   0.97428    12.470
260664766 ........... 3       7.0144 /_  114.3   0.97428    12.470
263399391 ........... 3       7.2593 /_  115.1    1.0083    12.470
260664781 ........... 3       7.2593 /_  115.1    1.0083    12.470
258443464 ........... 1       7.1881 /_   -5.7   0.99841    12.470        1-2     12.391 /_   26.0   0.99363
   -                  2       7.3255 /_ -122.9    1.0175    12.470        2-3     12.486 /_  -95.4    1.0012
   -                  3       6.8768 /_  114.0   0.95518    12.470        3-1     12.165 /_  144.9   0.97551
263399193 ........... 1       7.1881 /_   -5.7   0.99841    12.470
260664716 ........... 1       7.1881 /_   -5.7   0.99841    12.470
264353601 ........... 3       7.1124 /_  113.9   0.98789    12.470
261433667 ........... 3       7.1144 /_  113.9   0.98818    12.470
263981657 ........... 2       6.9083 /_ -125.2   0.95954    12.470
261266937 ........... 2       6.9083 /_ -125.2   0.95954    12.470
450041331 ........... 1       7.1681 /_   -5.8   0.99564    12.470
450041303 ........... 1       7.1681 /_   -5.8   0.99564    12.470
384331459 ........... 3       6.9194 /_  114.1   0.96109    12.470
384331487 ........... 3       6.9194 /_  114.1   0.96109    12.470
258425699 ........... 1       7.3806 /_   -4.5    1.0251    12.470        1-2     12.677 /_   26.0    1.0166
   -                  2       7.3381 /_ -123.4    1.0192    12.470        2-3     12.686 /_  -94.6    1.0173
   -                  3       7.1831 /_  114.8   0.99772    12.470        3-1      12.57 /_  145.6     1.008
264146153 ........... 1       7.3806 /_   -4.5    1.0251    12.470
261430842 ........... 1       7.3806 /_   -4.5    1.0251    12.470
258406218 ........... 3       7.1263 /_  114.0   0.98983    12.470
263391463 ........... 3       7.1263 /_  114.0   0.98983    12.470
260662916 ........... 3       7.1263 /_  114.0   0.98983    12.470
620861418 ........... 1        7.251 /_   -4.1    1.0071    12.470        1-2     12.307 /_   24.5    0.9869
   -                  2       6.8845 /_ -125.1   0.95623    12.470        2-3     12.158 /_  -95.3   0.97498
   -                  3       7.0672 /_  113.6   0.98162    12.470        3-1     12.255 /_  145.2   0.98275
620861448 ........... 2       6.8844 /_ -125.1   0.95623    12.470
258406550 ........... 3       7.0787 /_  113.7   0.98321    12.470
263391562 ........... 3       7.0787 /_  113.7   0.98321    12.470
260662946 ........... 3       7.0786 /_  113.7    0.9832    12.470
263782338 ........... 1       7.2223 /_   -5.4    1.0032    12.470
261052096 ........... 1       7.2223 /_   -5.4    1.0032    12.470
259418041 ........... 1       7.1687 /_   -5.8   0.99572    12.470
263909231 ........... 1       7.1687 /_   -5.8   0.99572    12.470
384502983 ........... 1       7.1681 /_   -5.8   0.99564    12.470
384503022 ........... 1       7.1681 /_   -5.8   0.99564    12.470
260981170 ........... 3       7.1218 /_  113.8   0.98919    12.470
260981164 ........... 3       7.1218 /_  113.8   0.98919    12.470
260663780 ........... 1       7.2506 /_   -4.1    1.0071    12.470
260663785 ........... 1       7.2506 /_   -4.1    1.0071    12.470
384502996 ........... 1       7.1681 /_   -5.8   0.99564    12.470
258425926 ........... 1       7.2223 /_   -5.4    1.0032    12.470        1-2     12.452 /_   26.0   0.99858
   -                  2       7.3315 /_ -123.1    1.0183    12.470        2-3     12.553 /_  -95.2    1.0066
   -                  3       6.9757 /_  114.3    0.9689    12.470        3-1     12.279 /_  145.0   0.98466
263782329 ........... 1       7.2222 /_   -5.4    1.0032    12.470
258406123 ........... 1       7.2905 /_   -4.2    1.0126    12.470
263391427 ........... 1       7.2905 /_   -4.2    1.0126    12.470
263391517 ........... 1       7.3037 /_   -4.2    1.0145    12.470
260662941 ........... 1       7.3037 /_   -4.2    1.0145    12.470
263391346 ........... 2        7.411 /_ -123.0    1.0294    12.470
260662881 ........... 2        7.411 /_ -123.0    1.0294    12.470
258443763 ........... 3       6.9717 /_  114.3   0.96836    12.470
263997744 ........... 3       6.9717 /_  114.3   0.96836    12.470
261282710 ........... 3       6.9717 /_  114.3   0.96836    12.470
258405714 ........... 2        7.411 /_ -123.0    1.0294    12.470
263391481 ........... 2        7.049 /_ -124.6   0.97909    12.470
260664746 ........... 1       7.1768 /_   -5.8   0.99683    12.470
260664736 ........... 1       7.1768 /_   -5.8   0.99683    12.470
260664741 ........... 1       7.1768 /_   -5.8   0.99683    12.470
263663375 ........... 3       7.0089 /_  114.3   0.97352    12.470
260881911 ........... 3       7.0089 /_  114.3   0.97352    12.470
258406338 ........... 1       7.3045 /_   -4.2    1.0146    12.470
263391508 ........... 1       7.3045 /_   -4.2    1.0146    12.470
259142547 ........... 3       7.0089 /_  114.3   0.97352    12.470
260664726 ........... 1       7.1766 /_   -5.8   0.99682    12.470
260664731 ........... 1       7.1766 /_   -5.8   0.99682    12.470
261061098 ........... 1        7.237 /_   -5.4    1.0052    12.470
264338255 ........... 1       7.2506 /_   -4.1    1.0071    12.470
260664686 ........... 2       7.3252 /_ -123.0    1.0175    12.470
258425363 ........... 2       6.8727 /_ -125.4   0.95459    12.470
263395264 ........... 2       6.8727 /_ -125.4   0.95459    12.470
261243331 ........... 2       6.8565 /_ -125.5   0.95235    12.470
260663825 ........... 2       6.8727 /_ -125.4   0.95459    12.470
258405938 ........... 1       7.3458 /_   -4.1    1.0203    12.470        1-2     12.539 /_   25.2    1.0055
   -                  2       7.1153 /_ -124.3    0.9883    12.470        2-3     12.447 /_  -95.0   0.99816
   -                  3       7.1559 /_  114.2   0.99393    12.470        3-1     12.453 /_  145.5   0.99864
263391382 ........... 2       7.1153 /_ -124.3    0.9883    12.470
260662886 ........... 2       7.1153 /_ -124.3    0.9883    12.470
263395426 ........... 1       7.2554 /_   -5.3    1.0077    12.470
260663875 ........... 1       7.2554 /_   -5.3    1.0077    12.470
260664701 ........... 2       7.3253 /_ -122.9    1.0175    12.470
260664706 ........... 2       7.3253 /_ -122.9    1.0175    12.470
258425882 ........... 1       7.2554 /_   -5.3    1.0077    12.470
263395345 ........... 2       7.2832 /_ -123.7    1.0116    12.470
260663865 ........... 2       7.2832 /_ -123.7    1.0116    12.470
260663870 ........... 1       7.2817 /_   -5.1    1.0114    12.470        1-2     12.532 /_   26.0     1.005
   -                  2       7.3324 /_ -123.2    1.0185    12.470        2-3     12.606 /_  -95.0    1.0109
   -                  3       7.0533 /_  114.4   0.97969    12.470        3-1     12.386 /_  145.2   0.99324
258405818 ........... 2       7.2832 /_ -123.7    1.0116    12.470
259446919 ........... 3       6.9729 /_  114.3   0.96852    12.470
261213173 ........... 3       6.9729 /_  114.3   0.96852    12.470
260663795 ........... 1       7.2503 /_   -4.1     1.007    12.470
258406233 ........... 1       7.3114 /_   -4.2    1.0155    12.470        1-2     12.466 /_   25.0   0.99969
   -                  2        7.049 /_ -124.6   0.97909    12.470        2-3      12.36 /_  -95.1   0.99115
   -                  3       7.1249 /_  114.0   0.98963    12.470        3-1     12.385 /_  145.4   0.99315
258425468 ........... 2       6.9083 /_ -125.2   0.95954    12.470
263395282 ........... 2       6.9083 /_ -125.2   0.95954    12.470
260663830 ........... 2       6.9083 /_ -125.2   0.95954    12.470
264310933 ........... 2       7.3253 /_ -122.9    1.0175    12.470
260662926 ........... 2       7.0536 /_ -124.6   0.97973    12.470
260662931 ........... 2       7.0536 /_ -124.6   0.97973    12.470
260662921 ........... 2       7.0536 /_ -124.6   0.97973    12.470
264148873 ........... 3       7.1161 /_  113.9   0.98841    12.470
260662906 ........... 2       7.0594 /_ -124.6   0.98053    12.470
260662911 ........... 2       7.0594 /_ -124.6   0.98053    12.470
260663805 ........... 1         7.25 /_   -4.1     1.007    12.470
264148855 ........... 2       7.0382 /_ -124.6   0.97759    12.470
260663800 ........... 1       7.2501 /_   -4.1     1.007    12.470
261434112 ........... 2       7.0327 /_ -124.6   0.97682    12.470
260664761 ........... 3       6.8613 /_  114.0   0.95302    12.470
258406032 ........... 1       7.3058 /_   -4.2    1.0148    12.470        1-2     12.453 /_   25.0    0.9986
   -                  2       7.0386 /_ -124.6   0.97765    12.470        2-3     12.343 /_  -95.2   0.98984
   -                  3       7.1138 /_  113.9   0.98809    12.470        3-1     12.367 /_  145.3   0.99178
620695940 ........... 1       7.1929 /_   -5.6   0.99908    12.470
620695957 ........... 1       7.1929 /_   -5.6   0.99908    12.470
258443856 ........... 3       7.0135 /_  114.3   0.97416    12.470
258443724 ........... 1       7.1682 /_   -5.8   0.99564    12.470
263399283 ........... 1       7.1682 /_   -5.8   0.99564    12.470
...
